Metadata-Version: 2.1
Name: modflow-devtools
Version: 1.6.0
Summary: Python tools for MODFLOW development
Author-email: "Joseph D. Hughes" <modflow@usgs.gov>, Michael Reno <mreno@ucar.edu>, Mike Taves <mwtoews@gmail.com>, Wes Bonelli <wbonelli@ucar.edu>
Maintainer-email: "Joseph D. Hughes" <modflow@usgs.gov>
License: CC0
Project-URL: Documentation, https://modflow-devtools.readthedocs.io/en/latest/
Project-URL: Bug Tracker, https://github.com/MODFLOW-USGS/modflow-devtools/issues
Project-URL: Source Code, https://github.com/MODFLOW-USGS/modflow-devtools
Keywords: MODFLOW,development,utilities,groundwater,hydrogeology
Classifier: Development Status :: 5 - Production/Stable
Classifier: Intended Audience :: Science/Research
Classifier: License :: CC0 1.0 Universal (CC0 1.0) Public Domain Dedication
Classifier: Programming Language :: Python :: 3 :: Only
Classifier: Programming Language :: Python :: 3
Classifier: Programming Language :: Python :: 3.8
Classifier: Programming Language :: Python :: 3.9
Classifier: Programming Language :: Python :: 3.10
Classifier: Programming Language :: Python :: 3.11
Classifier: Programming Language :: Python :: 3.12
Classifier: Topic :: Scientific/Engineering :: Hydrology
Requires-Python: >=3.8
Description-Content-Type: text/markdown
License-File: LICENSE.md
Provides-Extra: lint
Requires-Dist: ruff; extra == "lint"
Provides-Extra: test
Requires-Dist: modflow-devtools[lint]; extra == "test"
Requires-Dist: coverage; extra == "test"
Requires-Dist: flaky; extra == "test"
Requires-Dist: filelock; extra == "test"
Requires-Dist: meson!=0.63.0; extra == "test"
Requires-Dist: ninja; extra == "test"
Requires-Dist: numpy; extra == "test"
Requires-Dist: pandas; extra == "test"
Requires-Dist: pytest!=8.1.0; extra == "test"
Requires-Dist: pytest-cov; extra == "test"
Requires-Dist: pytest-dotenv; extra == "test"
Requires-Dist: pytest-xdist; extra == "test"
Requires-Dist: PyYaml; extra == "test"
Requires-Dist: syrupy; extra == "test"
Provides-Extra: docs
Requires-Dist: sphinx; extra == "docs"
Requires-Dist: sphinx-rtd-theme; extra == "docs"
Requires-Dist: myst-parser; extra == "docs"

# MODFLOW developer tools

[![CI](https://github.com/MODFLOW-USGS/modflow-devtools/actions/workflows/ci.yml/badge.svg)](https://github.com/MODFLOW-USGS/modflow-devtools/actions/workflows/ci.yml)
[![Documentation Status](https://readthedocs.org/projects/modflow-devtools/badge/?version=latest)](https://modflow-devtools.readthedocs.io/en/latest/?badge=latest)
[![GitHub contributors](https://img.shields.io/github/contributors/MODFLOW-USGS/modflow-devtools)](https://img.shields.io/github/contributors/MODFLOW-USGS/modflow-devtools)
[![GitHub tag](https://img.shields.io/github/tag/MODFLOW-USGS/modflow-devtools.svg)](https://github.com/MODFLOW-USGS/modflow-devtools/tags/latest)

[![PyPI License](https://img.shields.io/pypi/l/modflow-devtools)](https://pypi.python.org/pypi/modflow-devtools)
[![PyPI Status](https://img.shields.io/pypi/status/modflow-devtools.png)](https://pypi.python.org/pypi/modflow-devtools)
[![PyPI Format](https://img.shields.io/pypi/format/modflow-devtools)](https://pypi.python.org/pypi/modflow-devtools)
[![PyPI Version](https://img.shields.io/pypi/v/modflow-devtools.png)](https://pypi.python.org/pypi/modflow-devtools)
[![PyPI Versions](https://img.shields.io/pypi/pyversions/modflow-devtools.png)](https://pypi.python.org/pypi/modflow-devtools)

[![Anaconda License](https://anaconda.org/conda-forge/modflow-devtools/badges/license.svg)](https://anaconda.org/conda-forge/modflow-devtools/badges/license.svg)
[![Anaconda Version](https://anaconda.org/conda-forge/modflow-devtools/badges/version.svg)](https://anaconda.org/conda-forge/modflow-devtools)
[![Anaconda Updated](https://anaconda.org/conda-forge/modflow-devtools/badges/latest_release_date.svg)](https://anaconda.org/conda-forge/modflow-devtools)

<!-- START doctoc generated TOC please keep comment here to allow auto update -->
<!-- DON'T EDIT THIS SECTION, INSTEAD RE-RUN doctoc TO UPDATE -->

Python development tools for MODFLOW 6.

- [Use cases](#use-cases)
- [Requirements](#requirements)
- [Installation](#installation)
- [Documentation](#documentation)

<!-- END doctoc generated TOC please keep comment here to allow auto update -->

## Use cases

This is a small toolkit for developing MODFLOW 6, FloPy, and related projects. It includes standalone utilities and optional [Pytest](https://github.com/pytest-dev/pytest) extensions.

Utilities include:

* a minimal GitHub API client for retrieving release information and downloading assets
* a `ZipFile` subclass that [preserves file permissions](https://stackoverflow.com/questions/39296101/python-zipfile-removes-execute-permissions-from-binaries) (workaround for [Python #15795](https://bugs.python.org/issue15795))
* other release/distribution-related tools

Pytest features include:

- `--keep <path>` tempdir fixtures for [each scope](https://docs.pytest.org/en/stable/how-to/fixtures.html#scope-sharing-fixtures-across-classes-modules-packages-or-session)
- a [`--smoke` test](https://en.wikipedia.org/wiki/Smoke_testing_(software)) (abbrev. `-S`) CLI option shortcut
- markers to skip test cases conditional on
  - operating system
  - Python packages installed
  - executables available on the PATH
- test fixtures for example / test models in
  - `MODFLOW-USGS/modflow6-examples`
  - `MODFLOW-USGS/modflow6-testmodels`
  - `MODFLOW-USGS/modflow6-largetestmodels`

## Requirements

Python3.8+, dependency-free, but pairs well with `pytest` and select plugins, e.g.

- [`pytest-dotenv`](https://github.com/quiqua/pytest-dotenv)
- [`pytest-xdist`](https://github.com/pytest-dev/pytest-xdist)
- [`syrupy`](https://github.com/tophat/syrupy)

## Installation

`modflow-devtools` is available on PyPI and can be installed with pip:

```shell
pip install modflow-devtools
```

Pytest, pytest plugins, and other testing-related dependencies can be installed with:

```shell
pip install "modflow-devtools[test]"
```

To install from source and set up a development environment please see the [developer documentation](DEVELOPER.md).

To import `pytest` fixtures in a project consuming `modflow-devtools`, add the following to a test file or `conftest.py` file:

```python
pytest_plugins = [ "modflow_devtools.fixtures" ]
```

**Note**: this must be a top-level `conftest.py`, which nested `conftest.py` files may then override or extend.

## Documentation

Docs are available at [modflow-devtools.readthedocs.io](https://modflow-devtools.readthedocs.io/en/latest/).

For more info on MODFLOW 6 see [the USGS overview](https://water.usgs.gov/ogw/modflow/).
